LTspice 24.0.12 for Windows
Circuit: Linear Circuit
Start Time: Mon Jul 29 20:15:09 2024
solver = Normal
Maximum thread count: 12
tnom = 27
temp = 27
method = modified trap
.OP point found by inspection.
Total elapsed time: 0.239 seconds.

