LTspice 24.0.12 for Windows
Circuit: opamp
Start Time: Mon Jul 29 20:55:42 2024
solver = Normal
Maximum thread count: 12
tnom = 27
temp = 27
method = modified trap
.OP point found by inspection.
Total elapsed time: 0.145 seconds.

