LTspice 24.0.12 for Windows
Circuit: opamp
Start Time: Sun Jul 28 18:24:23 2024
solver = Normal
Maximum thread count: 12



.OP point found by inspection.
.step ress=4000
tnom = 27
temp = 27
method = modified trap
.step ress=9000
Total elapsed time: 0.311 seconds.

