LTspice 24.0.12 for Windows
Circuit: Linear Circuit
Start Time: Mon Jul 29 18:39:44 2024
solver = Normal
Maximum thread count: 12
tnom = 27
temp = 27
method = modified trap
Direct Newton iteration for .op point succeeded.
Total elapsed time: 0.232 seconds.

